Version 4
SHEET 1 1556 680
WIRE 48 -80 -128 -80
WIRE 560 -80 48 -80
WIRE 48 -48 48 -80
WIRE -128 16 -128 -80
WIRE 560 32 560 -80
WIRE 48 48 48 32
WIRE 528 48 48 48
WIRE 48 64 48 48
WIRE 688 64 592 64
WIRE 736 64 688 64
WIRE 288 80 176 80
WIRE 336 80 288 80
WIRE 464 80 416 80
WIRE 528 80 464 80
WIRE 176 128 176 80
WIRE 288 128 288 80
WIRE 560 144 560 96
WIRE -128 176 -128 96
WIRE 48 176 48 144
WIRE 464 224 464 80
WIRE 528 224 464 224
WIRE 688 224 688 64
WIRE 688 224 608 224
WIRE 176 256 176 208
WIRE 288 256 288 208
WIRE 288 256 176 256
WIRE 288 288 288 256
FLAG 288 288 0
FLAG 560 144 0
FLAG -128 176 0
FLAG 48 176 0
FLAG 736 64 VOUT
SYMBOL current 176 208 R180
WINDOW 3 -1125 -230 Left 2
WINDOW 123 0 0 Left 0
WINDOW 39 0 0 Left 0
SYMATTR Value PWL file="C:\users\iross\My Documents\projects\mini-mapper\prototypes\motor-board\simulations\with-noise\with-noise.pwl"
SYMATTR InstName I1
SYMBOL res 272 112 R0
SYMATTR InstName R1
SYMATTR Value 3.3K
SYMBOL Comparators\\LT1017 560 64 R0
SYMATTR InstName U1
SYMBOL voltage -128 0 R0
WINDOW 123 0 0 Left 0
WINDOW 39 0 0 Left 0
SYMATTR InstName V1
SYMATTR Value 3.3
SYMBOL res 32 -64 R0
SYMATTR InstName R2
SYMATTR Value 1K
SYMBOL res 32 48 R0
SYMATTR InstName R3
SYMATTR Value 1K
SYMBOL res 432 64 R90
WINDOW 0 0 56 VBottom 2
WINDOW 3 32 56 VTop 2
SYMATTR InstName R4
SYMATTR Value 1K
SYMBOL res 624 208 R90
WINDOW 0 0 56 VBottom 2
WINDOW 3 32 56 VTop 2
SYMATTR InstName R5
SYMATTR Value 33K
TEXT -200 296 Left 2 !.tran 0 8 0 0.001
